/*--------------------------------*- C++ -*----------------------------------*\
| =========                 |                                                |
| \\      /  F ield         | cfMesh: A library for mesh generation          | 
|  \\    /   O peration     |                                                |
|   \\  /    A nd           | Author: Franjo Juretic                         | 
|    \\/     M anipulation  | E-mail: franjo.juretic@c-fields.com            |
\*---------------------------------------------------------------------------*/

FoamFile
{
    version   2.0;
    format    ascii;
    class     dictionary;
    location  "system";
    object    meshDict;
}

// * * * * * * * * * * * * * * * * * * * * * * * * * * * * * * * * * * * * * //

surfaceFile "box.stl";

maxCellSize 0.75;

minCellSize 0.001;

localRefinement
{
 "patch0.*" 
  {
    additionalRefinementLevels 5;
    refinementThickness 0.65;
  }
}

objectRefinements
{
  downwindBox{
      type box;
      center (0 0 0);
      lengthX 1;
      lengthY 1;
      lengthZ 1;
  }
}

boundaryLayers
{
 patchBoundaryLayers
  {
   "patch0.*"
     {
      nLayers 6;
      thicknessRatio 1.1;
      maxFirstLayerThickness 0.0005;
      allowDiscontinuity 0;
     }
  }
}

renameBoundary
{
   newPatchNames
    {
       "patch0.*"
       {
          newName Aircraft
          type patch;
       }
    }

}


// ************************************************************************* //
